/*--------------------------------*- C++ -*----------------------------------*\
| =========                 |                                                 |
| \\      /  F ield         | OpenFOAM Extend Project: Open Source CFD        |
|  \\    /   O peration     | Version:  1.6-ext                               |
|   \\  /    A nd           | Web:      www.extend-project.de                 |
|    \\/     M anipulation  |                                                 |
\*---------------------------------------------------------------------------*/
FoamFile
{
    version     2.;
    format      ascii;
    class       dictionary;
    location    "constant/polyMesh";
    object      blockMeshDict;
}
// * * * * * * * * * * * * * * * * * * * * * * * * * * * * * * * * * * * * * //

// start of blockMeshDict

convertToMeters 1;

vertices
(
    (0 0 0) //0
    (1 0 0) //1
    (1 1 0) //2
    (0 1 0) //3
    (0 0 0.1) //4
    (1 0 0.1) //5
    (1 1 0.1) //6
    (0 1 0.1) //7
);

blocks
(
    hex (0 1 2 3 4 5 6 7) (100 100 1) simpleGrading (1 1 1)
);

edges
(
);

patches
(
    patch brickSides
    (
        (1 5 6 2)
        (0 3 7 4)
    )


    empty frontAndBack
    (
        (0 1 2 3)
        (7 6 5 4)
    )

    patch bottom
    (
        (0 4 5 1)
    )

    solid top
    (
        (7 3 2 6)
    )
);

mergePatchPairs
(
);

// ************************************************************************* //
