/*--------------------------------*- C++ -*----------------------------------*\
| =========                 |                                                 |
| \\      /  F ield         | OpenFOAM Extend Project: Open Source CFD        |
|  \\    /   O peration     | Version:  1.6-ext                               |
|   \\  /    A nd           | Web:      www.extend-project.de                 |
|    \\/     M anipulation  |                                                 |
\*---------------------------------------------------------------------------*/
FoamFile
{
    version     2.;
    format      ascii;
    class       dictionary;
    location    "constant/polyMesh";
    object      blockMeshDict;
}
// * * * * * * * * * * * * * * * * * * * * * * * * * * * * * * * * * * * * * //

// start of blockMeshDict

scale 1;

vertices
(
    (0 0 -0.05) //0
    (3 0 -0.05) //1
    (3 3 -0.05) //2
    (0 3 -0.05) //3
    (0 0 0.05) //4
    (3 0 0.05) //5
    (3 3 0.05) //6
    (0 3 0.05) //7
);

blocks
(
    hex (0 1 2 3 4 5 6 7) (10 10 1) simpleGrading (1 1 1)
);

edges
(
);

boundary
(
    left
    {
        type patch;
        faces
        (
            (0 3 7 4)
        );
    }


    top
    {
        type patch;
        faces
        (
            (7 3 2 6)
        );
    }

    right
    {
        type patch;
        faces
        (
            (1 5 6 2)
        );
    }

    bottom
    {
        type patch;
        faces
        (
            (0 4 5 1)
        );
    }

    frontAndBackPlanes
    {
        type empty;
        faces
        (
            (0 1 2 3)
            (7 6 5 4)
        );
    }
);

mergePatchPairs
(
);

// ************************************************************************* //
