/*
 _____     _____     _____ _____ _____ _____    |  High-order Python FOAM
|  |  |___|  _  |_ _|   __|     |  _  |     |   |  Python Version: 3.10
|     | . |   __| | |   __|  |  |     | | | |   |  Code Version: 0.0
|__|__|___|__|  |_  |__|  |_____|__|__|_|_|_|   |  License: GPLv3
                |___|
*/
FoamFile
{
    version     2.0;
    format      ascii;
    class       volScalarField;
    object      T;
}
// * * * * * * * * * * * * * * * * * * * * * * * * * * * * * * * * * * * * * //

dimensions      [0 0 0 1 0 0 0];

internalField   uniform 273;

boundaryField
{
    left
    {
        type            fixedValue;
        value           uniform 273;
    }

    right
    {
        type            fixedValue;
        value           uniform 373;
    }

    top
    {
        type            zeroGradient;
        value	        uniform 0;
    }

    bottom
    {
        type            zeroGradient;
        value	        uniform 0;
    }

    frontAndBack
    {
        type            empty;
    }
}



// ************************************************************************* //
