FoamFile
{
    version     2.0;
    format      ascii;
    class       volVectorField;
    location    "0";
    object      D;
}
// * * * * * * * * * * * * * * * * * * * * * * * * * * * * * * * * * * * * * //

dimensions      [0 1 0 0 0 0 0];

internalField   uniform (0 0 0);

boundaryField
{
    bottom
    {
        type            solidTraction;
	traction	uniform (0 0 0);
        pressure	uniform 0;
	value	        uniform (0 0 0);
    }

    top
    {
        type            solidTraction;
	pressure 	uniform 0;
	traction	uniform (0 0 0);
        value	        uniform (0 0 0);
    }

    left
    {
        type            fixedDisplacement;
        value	        uniform (0 0 0);
    }

    right
    {
        type            fixedDisplacement;
        value	        uniform (0.1 0 0);
    }

    frontAndBackPlanes
    {
        type            empty;
    }
}


// ************************************************************************* //
