/*--------------------------------*- C++ -*----------------------------------*\
| =========                 |                                                 |
| \\      /  F ield         | foam-extend: Open Source CFD                    |
|  \\    /   O peration     | Version:     4.1                                |
|   \\  /    A nd           | Web:         http://www.foam-extend.org         |
|    \\/     M anipulation  |                                                 |
\*---------------------------------------------------------------------------*/
FoamFile
{
    version     2.0;
    format      ascii;
    class       volVectorField;
    location    "0";
    object      U;
}
// * * * * * * * * * * * * * * * * * * * * * * * * * * * * * * * * * * * * * //

dimensions      [0 1 0 0 0 0 0];

internalField   uniform (0 0 0);

boundaryField
{
    bottom
    {
        type            fixedDisplacement;
        value	        uniform (0 0 0);
    }

    top
    {
        type            fixedDisplacement;
        value	        uniform (0 0 0);
    }

    left
    {
        type            fixedDisplacement;
        value	        uniform (0 0 0);
    }
    
    right
    {
        type            fixedDisplacement;
        value	        uniform (0 0 0);
    }

    frontAndBackPlanes
    {
        type            empty;
    }
}


// ************************************************************************* //
