/*--------------------------------*- C++ -*----------------------------------*\
| =========                 |                                                 |
| \\      /  F ield         | foam-extend: Open Source CFD                    |
|  \\    /   O peration     | Version:     4.1                                |
|   \\  /    A nd           | Web:         http://www.foam-extend.org         |
|    \\/     M anipulation  |                                                 |
\*---------------------------------------------------------------------------*/
FoamFile
{
    version     2.0;
    format      ascii;
    class       dictionary;
    location    "1/uniform";
    object      time;
}
// * * * * * * * * * * * * * * * * * * * * * * * * * * * * * * * * * * * * * //

index           1;

deltaT          1;

deltaT0         1;


// ************************************************************************* //
