/*
 _____     _____     _____ _____ _____ _____    |  High-order Python FOAM
|  |  |___|  _  |_ _|   __|     |  _  |     |   |  Python Version: 3.10
|     | . |   __| | |   __|  |  |     | | | |   |  Code Version: 0.0
|__|__|___|__|  |_  |__|  |_____|__|__|_|_|_|   |  License: GPLv3
                |___|
*/
FoamFile
{
    version     2.0;
    format      ascii;
    class       dictionary;
    location    "constant";
    object      mechanicalProperties;
}
// * * * * * * * * * * * * * * * * * * * * * * * * * * * * * * * * * * * * * //

planeStress        no;

mechanical
(
    steel
    {
        type            linearElastic;
        rho             rho [1 -3 0 0 0 0 0] 7800;
        E               E [1 -1 -2 0 0 0 0] 1;
        nu              nu [0 0 0 0 0 0 0] 0.3;
    }
);

// ************************************************************************* //
